/*--------------------------------*- C++ -*----------------------------------*\
| =========                 |                                                 |
| \\      /  F ield         | OpenFOAM: The Open Source CFD Toolbox           |
|  \\    /   O peration     | Version:  2406                                  |
|   \\  /    A nd           | Website:  www.openfoam.com                      |
|    \\/     M anipulation  |                                                 |
\*---------------------------------------------------------------------------*/
FoamFile
{
    version     2.0;
    format      ascii;
    arch        "LSB;label=32;scalar=64";
    class       polyBoundaryMesh;
    location    "constant/polyMesh";
    object      boundary;
}
// * * * * * * * * * * * * * * * * * * * * * * * * * * * * * * * * * * * * * //

11
(
    inlet
    {
        type            patch;
        nFaces          0;
        startFace       48535;
    }
    shape
    {
        type            wall;
        inGroups        1(wall);
        nFaces          0;
        startFace       48535;
    }
    outlet
    {
        type            patch;
        nFaces          0;
        startFace       48535;
    }
    top
    {
        type            wall;
        inGroups        1(wall);
        nFaces          0;
        startFace       48535;
    }
    bottom
    {
        type            wall;
        inGroups        1(wall);
        nFaces          16;
        startFace       48535;
    }
    frontAndBackPlanes
    {
        type            empty;
        inGroups        1(empty);
        nFaces          65032;
        startFace       48551;
    }
    procBoundary10to5
    {
        type            processor;
        inGroups        1(processor);
        nFaces          19;
        startFace       113583;
        matchTolerance  0.0001;
        transform       unknown;
        myProcNo        10;
        neighbProcNo    5;
    }
    procBoundary10to6
    {
        type            processor;
        inGroups        1(processor);
        nFaces          29;
        startFace       113602;
        matchTolerance  0.0001;
        transform       unknown;
        myProcNo        10;
        neighbProcNo    6;
    }
    procBoundary10to7
    {
        type            processor;
        inGroups        1(processor);
        nFaces          81;
        startFace       113631;
        matchTolerance  0.0001;
        transform       unknown;
        myProcNo        10;
        neighbProcNo    7;
    }
    procBoundary10to8
    {
        type            processor;
        inGroups        1(processor);
        nFaces          174;
        startFace       113712;
        matchTolerance  0.0001;
        transform       unknown;
        myProcNo        10;
        neighbProcNo    8;
    }
    procBoundary10to9
    {
        type            processor;
        inGroups        1(processor);
        nFaces          159;
        startFace       113886;
        matchTolerance  0.0001;
        transform       unknown;
        myProcNo        10;
        neighbProcNo    9;
    }
)

// ************************************************************************* //
