/*--------------------------------*- C++ -*----------------------------------*\
| =========                 |                                                 |
| \\      /  F ield         | OpenFOAM: The Open Source CFD Toolbox           |
|  \\    /   O peration     | Version:  2406                                  |
|   \\  /    A nd           | Website:  www.openfoam.com                      |
|    \\/     M anipulation  |                                                 |
\*---------------------------------------------------------------------------*/
FoamFile
{
    version     2.0;
    format      ascii;
    arch        "LSB;label=32;scalar=64";
    class       polyBoundaryMesh;
    location    "constant/polyMesh";
    object      boundary;
}
// * * * * * * * * * * * * * * * * * * * * * * * * * * * * * * * * * * * * * //

9
(
    inlet
    {
        type            patch;
        nFaces          0;
        startFace       89217;
    }
    shape
    {
        type            wall;
        inGroups        1(wall);
        nFaces          0;
        startFace       89217;
    }
    outlet
    {
        type            patch;
        nFaces          0;
        startFace       89217;
    }
    top
    {
        type            wall;
        inGroups        1(wall);
        nFaces          23;
        startFace       89217;
    }
    bottom
    {
        type            wall;
        inGroups        1(wall);
        nFaces          0;
        startFace       89240;
    }
    frontAndBackPlanes
    {
        type            empty;
        inGroups        1(empty);
        nFaces          119322;
        startFace       89240;
    }
    procBoundary2to0
    {
        type            processor;
        inGroups        1(processor);
        nFaces          149;
        startFace       208562;
        matchTolerance  0.0001;
        transform       unknown;
        myProcNo        2;
        neighbProcNo    0;
    }
    procBoundary2to1
    {
        type            processor;
        inGroups        1(processor);
        nFaces          199;
        startFace       208711;
        matchTolerance  0.0001;
        transform       unknown;
        myProcNo        2;
        neighbProcNo    1;
    }
    procBoundary2to5
    {
        type            processor;
        inGroups        1(processor);
        nFaces          178;
        startFace       208910;
        matchTolerance  0.0001;
        transform       unknown;
        myProcNo        2;
        neighbProcNo    5;
    }
)

// ************************************************************************* //
