/*--------------------------------*- C++ -*----------------------------------*\
| =========                 |                                                 |
| \\      /  F ield         | OpenFOAM: The Open Source CFD Toolbox           |
|  \\    /   O peration     | Version:  2406                                  |
|   \\  /    A nd           | Website:  www.openfoam.com                      |
|    \\/     M anipulation  |                                                 |
\*---------------------------------------------------------------------------*/
FoamFile
{
    version     2.0;
    format      ascii;
    arch        "LSB;label=32;scalar=64";
    class       polyBoundaryMesh;
    location    "constant/polyMesh";
    object      boundary;
}
// * * * * * * * * * * * * * * * * * * * * * * * * * * * * * * * * * * * * * //

8
(
    inlet
    {
        type            patch;
        nFaces          0;
        startFace       89169;
    }
    shape
    {
        type            wall;
        inGroups        1(wall);
        nFaces          0;
        startFace       89169;
    }
    outlet
    {
        type            patch;
        nFaces          192;
        startFace       89169;
    }
    top
    {
        type            wall;
        inGroups        1(wall);
        nFaces          0;
        startFace       89361;
    }
    bottom
    {
        type            wall;
        inGroups        1(wall);
        nFaces          18;
        startFace       89361;
    }
    frontAndBackPlanes
    {
        type            empty;
        inGroups        1(empty);
        nFaces          119286;
        startFace       89379;
    }
    procBoundary5to3
    {
        type            processor;
        inGroups        1(processor);
        nFaces          161;
        startFace       208665;
        matchTolerance  0.0001;
        transform       unknown;
        myProcNo        5;
        neighbProcNo    3;
    }
    procBoundary5to4
    {
        type            processor;
        inGroups        1(processor);
        nFaces          220;
        startFace       208826;
        matchTolerance  0.0001;
        transform       unknown;
        myProcNo        5;
        neighbProcNo    4;
    }
)

// ************************************************************************* //
