/*--------------------------------*- C++ -*----------------------------------*\
| =========                 |                                                 |
| \\      /  F ield         | OpenFOAM: The Open Source CFD Toolbox           |
|  \\    /   O peration     | Version:  2406                                  |
|   \\  /    A nd           | Website:  www.openfoam.com                      |
|    \\/     M anipulation  |                                                 |
\*---------------------------------------------------------------------------*/
FoamFile
{
    version     2.0;
    format      ascii;
    arch        "LSB;label=32;scalar=64";
    class       polyBoundaryMesh;
    location    "constant/polyMesh";
    object      boundary;
}
// * * * * * * * * * * * * * * * * * * * * * * * * * * * * * * * * * * * * * //

10
(
    inlet
    {
        type            patch;
        nFaces          0;
        startFace       89574;
    }
    shape
    {
        type            wall;
        inGroups        1(wall);
        nFaces          267;
        startFace       89574;
    }
    outlet
    {
        type            patch;
        nFaces          0;
        startFace       89841;
    }
    top
    {
        type            wall;
        inGroups        1(wall);
        nFaces          15;
        startFace       89841;
    }
    bottom
    {
        type            wall;
        inGroups        1(wall);
        nFaces          0;
        startFace       89856;
    }
    frontAndBackPlanes
    {
        type            empty;
        inGroups        1(empty);
        nFaces          118570;
        startFace       89856;
    }
    procBoundary5to0
    {
        type            processor;
        inGroups        1(processor);
        nFaces          15;
        startFace       208426;
        matchTolerance  0.0001;
        transform       unknown;
        myProcNo        5;
        neighbProcNo    0;
    }
    procBoundary5to2
    {
        type            processor;
        inGroups        1(processor);
        nFaces          178;
        startFace       208441;
        matchTolerance  0.0001;
        transform       unknown;
        myProcNo        5;
        neighbProcNo    2;
    }
    procBoundary5to3
    {
        type            processor;
        inGroups        1(processor);
        nFaces          152;
        startFace       208619;
        matchTolerance  0.0001;
        transform       unknown;
        myProcNo        5;
        neighbProcNo    3;
    }
    procBoundary5to4
    {
        type            processor;
        inGroups        1(processor);
        nFaces          216;
        startFace       208771;
        matchTolerance  0.0001;
        transform       unknown;
        myProcNo        5;
        neighbProcNo    4;
    }
)

// ************************************************************************* //
