/*--------------------------------*- C++ -*----------------------------------*\
| =========                 |                                                 |
| \\      /  F ield         | OpenFOAM: The Open Source CFD Toolbox           |
|  \\    /   O peration     | Version:  2406                                  |
|   \\  /    A nd           | Website:  www.openfoam.com                      |
|    \\/     M anipulation  |                                                 |
\*---------------------------------------------------------------------------*/
FoamFile
{
    version     2.0;
    format      ascii;
    arch        "LSB;label=32;scalar=64";
    class       polyBoundaryMesh;
    location    "constant/polyMesh";
    object      boundary;
}
// * * * * * * * * * * * * * * * * * * * * * * * * * * * * * * * * * * * * * //

11
(
    inlet
    {
        type            patch;
        nFaces          0;
        startFace       49361;
    }
    shape
    {
        type            wall;
        inGroups        1(wall);
        nFaces          269;
        startFace       49361;
    }
    outlet
    {
        type            patch;
        nFaces          0;
        startFace       49630;
    }
    top
    {
        type            wall;
        inGroups        1(wall);
        nFaces          0;
        startFace       49630;
    }
    bottom
    {
        type            wall;
        inGroups        1(wall);
        nFaces          0;
        startFace       49630;
    }
    frontAndBackPlanes
    {
        type            empty;
        inGroups        1(empty);
        nFaces          64880;
        startFace       49630;
    }
    procBoundary2to0
    {
        type            processor;
        inGroups        1(processor);
        nFaces          135;
        startFace       114510;
        matchTolerance  0.0001;
        transform       unknown;
        myProcNo        2;
        neighbProcNo    0;
    }
    procBoundary2to3
    {
        type            processor;
        inGroups        1(processor);
        nFaces          38;
        startFace       114645;
        matchTolerance  0.0001;
        transform       unknown;
        myProcNo        2;
        neighbProcNo    3;
    }
    procBoundary2to4
    {
        type            processor;
        inGroups        1(processor);
        nFaces          128;
        startFace       114683;
        matchTolerance  0.0001;
        transform       unknown;
        myProcNo        2;
        neighbProcNo    4;
    }
    procBoundary2to6
    {
        type            processor;
        inGroups        1(processor);
        nFaces          105;
        startFace       114811;
        matchTolerance  0.0001;
        transform       unknown;
        myProcNo        2;
        neighbProcNo    6;
    }
    procBoundary2to9
    {
        type            processor;
        inGroups        1(processor);
        nFaces          75;
        startFace       114916;
        matchTolerance  0.0001;
        transform       unknown;
        myProcNo        2;
        neighbProcNo    9;
    }
)

// ************************************************************************* //
