/*--------------------------------*- C++ -*----------------------------------*\
| =========                 |                                                 |
| \\      /  F ield         | OpenFOAM: The Open Source CFD Toolbox           |
|  \\    /   O peration     | Version:  2406                                  |
|   \\  /    A nd           | Website:  www.openfoam.com                      |
|    \\/     M anipulation  |                                                 |
\*---------------------------------------------------------------------------*/
FoamFile
{
    version     2.0;
    format      ascii;
    arch        "LSB;label=32;scalar=64";
    class       polyBoundaryMesh;
    location    "constant/polyMesh";
    object      boundary;
}
// * * * * * * * * * * * * * * * * * * * * * * * * * * * * * * * * * * * * * //

8
(
    inlet
    {
        type            patch;
        nFaces          23;
        startFace       90061;
    }
    shape
    {
        type            wall;
        inGroups        1(wall);
        nFaces          299;
        startFace       90084;
    }
    outlet
    {
        type            patch;
        nFaces          0;
        startFace       90383;
    }
    top
    {
        type            wall;
        inGroups        1(wall);
        nFaces          0;
        startFace       90383;
    }
    bottom
    {
        type            wall;
        inGroups        1(wall);
        nFaces          23;
        startFace       90383;
    }
    frontAndBackPlanes
    {
        type            empty;
        inGroups        1(empty);
        nFaces          118948;
        startFace       90406;
    }
    procBoundary2to0
    {
        type            processor;
        inGroups        1(processor);
        nFaces          128;
        startFace       209354;
        matchTolerance  0.0001;
        transform       unknown;
        myProcNo        2;
        neighbProcNo    0;
    }
    procBoundary2to1
    {
        type            processor;
        inGroups        1(processor);
        nFaces          219;
        startFace       209482;
        matchTolerance  0.0001;
        transform       unknown;
        myProcNo        2;
        neighbProcNo    1;
    }
)

// ************************************************************************* //
