/*--------------------------------*- C++ -*----------------------------------*\
| =========                 |                                                 |
| \\      /  F ield         | OpenFOAM: The Open Source CFD Toolbox           |
|  \\    /   O peration     | Version:  2406                                  |
|   \\  /    A nd           | Website:  www.openfoam.com                      |
|    \\/     M anipulation  |                                                 |
\*---------------------------------------------------------------------------*/
FoamFile
{
    version     2.0;
    format      ascii;
    arch        "LSB;label=32;scalar=64";
    class       polyBoundaryMesh;
    location    "constant/polyMesh";
    object      boundary;
}
// * * * * * * * * * * * * * * * * * * * * * * * * * * * * * * * * * * * * * //

11
(
    inlet
    {
        type            patch;
        nFaces          0;
        startFace       48642;
    }
    shape
    {
        type            wall;
        inGroups        1(wall);
        nFaces          0;
        startFace       48642;
    }
    outlet
    {
        type            patch;
        nFaces          0;
        startFace       48642;
    }
    top
    {
        type            wall;
        inGroups        1(wall);
        nFaces          2;
        startFace       48642;
    }
    bottom
    {
        type            wall;
        inGroups        1(wall);
        nFaces          0;
        startFace       48644;
    }
    frontAndBackPlanes
    {
        type            empty;
        inGroups        1(empty);
        nFaces          65214;
        startFace       48644;
    }
    procBoundary6to0
    {
        type            processor;
        inGroups        1(processor);
        nFaces          109;
        startFace       113858;
        matchTolerance  0.0001;
        transform       unknown;
        myProcNo        6;
        neighbProcNo    0;
    }
    procBoundary6to2
    {
        type            processor;
        inGroups        1(processor);
        nFaces          105;
        startFace       113967;
        matchTolerance  0.0001;
        transform       unknown;
        myProcNo        6;
        neighbProcNo    2;
    }
    procBoundary6to7
    {
        type            processor;
        inGroups        1(processor);
        nFaces          179;
        startFace       114072;
        matchTolerance  0.0001;
        transform       unknown;
        myProcNo        6;
        neighbProcNo    7;
    }
    procBoundary6to9
    {
        type            processor;
        inGroups        1(processor);
        nFaces          113;
        startFace       114251;
        matchTolerance  0.0001;
        transform       unknown;
        myProcNo        6;
        neighbProcNo    9;
    }
    procBoundary6to10
    {
        type            processor;
        inGroups        1(processor);
        nFaces          29;
        startFace       114364;
        matchTolerance  0.0001;
        transform       unknown;
        myProcNo        6;
        neighbProcNo    10;
    }
)

// ************************************************************************* //
