/*--------------------------------*- C++ -*----------------------------------*\
| =========                 |                                                 |
| \\      /  F ield         | OpenFOAM: The Open Source CFD Toolbox           |
|  \\    /   O peration     | Version:  2406                                  |
|   \\  /    A nd           | Website:  www.openfoam.com                      |
|    \\/     M anipulation  |                                                 |
\*---------------------------------------------------------------------------*/
FoamFile
{
    version     2.0;
    format      ascii;
    arch        "LSB;label=32;scalar=64";
    class       polyBoundaryMesh;
    location    "constant/polyMesh";
    object      boundary;
}
// * * * * * * * * * * * * * * * * * * * * * * * * * * * * * * * * * * * * * //

8
(
    inlet
    {
        type            patch;
        nFaces          22;
        startFace       48577;
    }
    shape
    {
        type            wall;
        inGroups        1(wall);
        nFaces          0;
        startFace       48599;
    }
    outlet
    {
        type            patch;
        nFaces          0;
        startFace       48599;
    }
    top
    {
        type            wall;
        inGroups        1(wall);
        nFaces          22;
        startFace       48599;
    }
    bottom
    {
        type            wall;
        inGroups        1(wall);
        nFaces          0;
        startFace       48621;
    }
    frontAndBackPlanes
    {
        type            empty;
        inGroups        1(empty);
        nFaces          64972;
        startFace       48621;
    }
    procBoundary1to0
    {
        type            processor;
        inGroups        1(processor);
        nFaces          158;
        startFace       113593;
        matchTolerance  0.0001;
        transform       unknown;
        myProcNo        1;
        neighbProcNo    0;
    }
    procBoundary1to3
    {
        type            processor;
        inGroups        1(processor);
        nFaces          102;
        startFace       113751;
        matchTolerance  0.0001;
        transform       unknown;
        myProcNo        1;
        neighbProcNo    3;
    }
)

// ************************************************************************* //
